[TITLE]
;;Project Title/Notes

[OPTIONS]
;;Option             Value
FLOW_UNITS           CMS
INFILTRATION         HORTON
FLOW_ROUTING         DYNWAVE
LINK_OFFSETS         DEPTH
MIN_SLOPE            0
ALLOW_PONDING        NO
SKIP_STEADY_STATE    NO

START_DATE           10/01/2022
START_TIME           00:00:00
REPORT_START_DATE    10/01/2022
REPORT_START_TIME    00:00:00
END_DATE             10/05/2022
END_TIME             18:00:00
SWEEP_START          01/01
SWEEP_END            12/31
DRY_DAYS             0
REPORT_STEP          00:15:00
WET_STEP             00:05:00
DRY_STEP             01:00:00
ROUTING_STEP         0:00:15

INERTIAL_DAMPING     PARTIAL
NORMAL_FLOW_LIMITED  BOTH
FORCE_MAIN_EQUATION  H-W
VARIABLE_STEP        0.75
LENGTHENING_STEP     0
MIN_SURFAREA         1.167
MAX_TRIALS           8
HEAD_TOLERANCE       0.00001
SYS_FLOW_TOL         5
LAT_FLOW_TOL         5
MINIMUM_STEP         0.5
THREADS              1

[EVAPORATION]
;;Data Source    Parameters
;;-------------- ----------------
CONSTANT         0.0
DRY_ONLY         NO

[JUNCTIONS]
;;Name           Elevation  MaxDepth   InitDepth  SurDepth   Aponded   
;;-------------- ---------- ---------- ---------- ---------- ----------
1                131.1      80.6       22.9       0          0         
2                137.8      73.9       16.2       0          0         
3                132.7      79.0       21.3       0          0         
4                102.3      109.4      51.7       0          0         
5                108.9      102.8      45.1       0          0         
6                138.6      73.1       15.4       0          0         
7                148.9      62.8       5.1        0          0         
8                139.0      72.7       15.0       0          0         
9                131.9      79.8       22.1       0          0         
10               131.8      79.9       22.2       0          0         
11               143.7      75.1       10.3       0          0         
12               110.9      100.8      43.1       0          0         
13               140.1      71.6       13.9       0          0         
14               144.9      66.8       9.1        0          0         
15               141.3      70.4       12.7       0          0         
16               139.3      72.4       14.7       0          0         
17               137.8      73.9       16.2       0          0         
18               135.4      76.3       18.6       0          0         
19               141.2      70.5       12.8       0          0         
20               137.9      73.8       16.1       0          0         
21               138.5      73.2       15.5       0          0         
22               127.3      84.4       26.7       0          0         
23               141.6      70.1       12.4       0          0         
24               145.8      65.9       8.2        0          0         
25               140.2      71.5       13.8       0          0         
26               144.5      67.2       9.5        0          0         
27               127.4      84.3       26.6       0          0         
28               142.9      58.8       11.1       0          0         
29               108.0      93.7       46.0       0          0         
30               113.8      87.9       40.2       0          0         
31               128.2      76.6       25.8       0          0         
32               128.4      73.3       25.6       0          0         
33               141.4      60.3       12.6       0          0         
34               130.2      71.5       23.8       0          0         
35               138.1      63.6       15.9       0          0         
36               103.9      97.8       50.1       0          0         
37               109.3      92.4       44.7       0          0         
38               88.2       113.5      65.8       0          0         
39               118.2      83.5       35.8       0          0         
40               133.9      67.8       20.1       0          0         
41               116.2      85.5       37.8       0          0         
42               118.0      83.7       36.0       0          0         
43               125.0      76.7       29.0       0          0         
44               126.6      75.1       27.4       0          0         
45               131.4      70.3       22.6       0          0         
46               115.3      86.4       38.7       0          0         
47               127.4      74.3       26.6       0          0         
48               125.0      102.7      29.0       0          0         
49               101.2      100.5      52.8       0          0         
50               125.9      75.8       28.1       0          0         
51               117.8      83.9       36.2       0          0         
52               107.5      110.4      46.5       0          0         
53               104.6      97.1       49.4       0          0         
54               112.3      89.4       41.7       0          0         
55               115.8      85.9       38.2       0          0         
56               127.1      74.6       26.9       0          0         
57               134.6      83.2       19.4       0          0         
58               129.4      72.3       24.6       0          0         
59               57.3       144.4      96.7       0          0         
60               91.7       110.0      62.3       0          0         
61               111.5      90.2       42.5       0          0         
62               87.4       114.3      66.6       0          0         
63               90.7       111.0      63.3       0          0         
64               118.5      83.2       35.5       0          0         
65               126.7      75.0       27.3       0          0         
66               131.2      105.4      22.8       0          0         
67               124.2      77.5       29.8       0          0         
68               125.3      76.4       28.7       0          0         
69               120.4      81.3       33.6       0          0         
70               117.9      83.8       36.1       0          0         
71               125.1      76.6       28.9       0          0         
72               120.8      80.9       33.2       0          0         
73               110.7      91.0       43.3       0          0         
74               89.2       112.5      64.8       0          0         
75               79.4       122.3      74.6       0          0         
76               45.9       155.8      108.1      0          0         
77               94.2       107.5      59.8       0          0         
78               77.3       124.4      76.7       0          0         
79               113.9      97.0       40.1       0          0         
80               99.8       101.9      54.2       0          0         
81               114.8      76.9       39.2       0          0         
82               126.1      75.6       27.9       0          0         
83               110.7      91.0       43.3       0          0         
84               117.7      84.0       36.3       0          0         
85               118.0      83.7       36.0       0          0         
86               116.7      85.0       37.3       0          0         
87               110.4      91.3       43.6       0          0         
88               120.9      80.8       33.1       0          0         
89               106.2      95.5       47.8       0          0         
90               108.6      93.1       45.4       0          0         
91               117.2      84.5       36.8       0          0         
92               118.8      82.9       35.2       0          0         
93               102.4      99.3       51.6       0          0         
94               109.5      92.2       44.5       0          0         
95               73.2       128.5      80.8       0          0         
96               101.0      100.7      53.0       0          0         
97               89.2       112.5      64.8       0          0         
98               107.7      94.0       46.3       0          0         
99               99.5       102.2      54.5       0          0         
100              112.6      89.1       41.4       0          0         
101              110.1      91.6       43.9       0          0         
102              99.8       101.9      54.2       0          0         
103              100.6      101.1      53.4       0          0         
104              110.8      90.9       43.2       0          0         
105              113.1      88.6       40.9       0          0         
106              107.3      94.4       46.7       0          0         
107              106.1      95.6       47.9       0          0         
108              103.8      97.9       50.2       0          0         
109              99.5       102.2      54.5       0          0         
110              97.9       103.8      56.1       0          0         
111              95.7       106.0      58.3       0          0         
112              97.8       103.9      56.2       0          0         
113              98.0       103.7      56.0       0          0         
114              104.3      97.4       49.7       0          0         
115              106.6      95.1       47.4       0          0         
116              99.8       101.9      54.2       0          0         
117              80.5       121.2      73.5       0          0         
118              108.7      93.0       45.3       0          0         
119              110.2      91.5       43.8       0          0         
120              80.3       121.4      73.7       0          0         
121              97.0       104.7      57.0       0          0         
122              100.8      100.9      53.2       0          0         
123              104.3      97.4       49.7       0          0         
124              103.2      98.5       50.8       0          0         
125              102.2      99.5       51.8       0          0         
126              86.2       115.5      67.8       0          0         
127              81.0       120.7      73.0       0          0         
128              93.4       108.3      60.6       0          0         
129              84.5       117.2      69.5       0          0         
130              82.7       119.0      71.3       0          0         
131              103.0      98.7       51.0       0          0         
132              96.9       104.8      57.1       0          0         
133              85.9       115.8      68.1       0          0         
134              85.1       116.6      68.9       0          0         
135              81.4       120.3      72.6       0          0         
136              81.7       120.0      72.3       0          0         
137              55.0       146.7      99.0       0          0         
138              64.2       137.5      89.8       0          0         
139              84.0       117.7      70.0       0          0         
140              77.6       124.1      76.4       0          0         
141              87.5       114.2      66.5       0          0         
142              96.3       105.4      57.7       0          0         
143              96.4       109.6      57.6       0          0         
144              94.8       106.9      59.2       0          0         
145              96.0       105.7      58.0       0          0         
146              82.6       119.1      71.4       0          0         
147              70.1       131.6      83.9       0          0         
148              81.3       120.4      72.7       0          0         
149              70.3       131.4      83.7       0          0         
150              57.7       144.0      96.3       0          0         
151              80.5       121.2      73.5       0          0         
152              86.3       115.4      67.7       0          0         
153              86.2       115.5      67.8       0          0         
154              87.6       114.1      66.4       0          0         
155              80.4       121.3      73.6       0          0         
156              72.0       129.7      82.0       0          0         
157              89.5       112.2      64.5       0          0         
158              87.2       114.5      66.8       0          0         
159              77.4       124.3      76.6       0          0         
160              83.8       117.9      70.2       0          0         
161              81.1       120.6      72.9       0          0         
162              77.5       124.2      76.5       0          0         
163              83.8       117.9      70.2       0          0         
164              63.9       137.8      90.1       0          0         
165              59.8       141.9      94.2       0          0         
166              55.0       146.7      99.0       0          0         
167              55.5       146.2      98.5       0          0         
168              67.8       133.9      86.2       0          0         
169              80.4       121.3      73.6       0          0         
170              72.7       129.0      81.3       0          0         
171              81.0       120.7      73.0       0          0         
172              78.3       123.4      75.7       0          0         
173              39.1       162.6      114.9      0          0         
174              75.2       126.5      78.8       0          0         
175              55.9       145.8      98.1       0          0         
176              67.2       134.5      86.8       0          0         
177              73.9       127.8      80.1       0          0         
178              70.8       130.9      83.2       0          0         
179              43.6       158.1      110.4      0          0         
180              54.8       147.0      99.2       0          0         
181              42.6       159.2      111.4      0          0         
182              46.8       155.0      107.2      0          0         
183              46.3       155.5      107.7      0          0         
184              52.0       149.8      102.0      0          0         
185              47.3       154.5      106.7      0          0         
186              42.9       158.9      111.1      0          0         
187              47.8       154.0      106.2      0          0         
188              64.2       137.6      89.8       0          0         
189              71.1       130.7      82.9       0          0         
190              37.8       164.0      116.2      0          0         
191              40.2       161.6      113.8      0          0         
192              65.4       136.4      88.6       0          0         
193              47.0       154.8      107.0      0          0         
194              33.8       168.0      120.2      0          0         
195              51.7       150.1      102.3      0          0         
196              52.5       149.3      101.5      0          0         
197              19.5       182.3      134.5      0          0         
198              57.9       143.9      96.1       0          0         
199              56.9       144.9      97.1       0          0         
200              46.6       155.2      107.4      0          0         
201              44.9       156.9      109.1      0          0         
202              61.8       140.0      92.2       0          0         
203              23.3       178.5      130.7      0          0         
204              31.9       169.9      122.1      0          0         
205              54.8       137.0      99.2       0          0         
206              48.2       138.6      105.8      0          0         
207              68.0       118.8      86.0       0          0         
208              68.8       118.0      85.2       0          0         
209              70.2       116.6      83.8       0          0         
210              62.0       124.8      92.0       0          0         
211              66.0       120.8      88.0       0          0         
212              22.1       164.7      131.9      0          0         
213              34.9       151.9      119.1      0          0         
214              9.6        177.2      144.4      0          0         
215              24.2       162.6      129.8      0          0         
216              39.2       147.6      114.8      0          0         
217              63.2       123.6      90.8       0          0         
218              17.2       169.6      136.8      0          0         
219              56.1       130.7      97.9       0          0         
220              0.5        186.3      153.5      0          0         
221              55.8       131.0      98.2       0          0         
222              -0.9       187.7      154.9      0          0         
223              57.3       129.5      96.7       0          0         
224              54.4       132.4      99.6       0          0         
225              23.6       163.2      130.4      0          0         
226              60.3       126.5      93.7       0          0         
227              51.9       134.9      102.1      0          0         
228              57.4       129.4      96.6       0          0         
229              57.8       129.0      96.2       0          0         
230              27.2       159.6      126.8      0          0         
231              43.6       143.2      110.4      0          0         
232              26.5       160.3      127.5      0          0         
233              38.1       148.7      115.9      0          0         
234              19.3       167.5      134.7      0          0         
235              40.6       146.2      113.4      0          0         
236              -12.7      240.2      166.7      0          0         
237              32.7       154.1      121.3      0          0         
238              -3.4       190.2      157.4      0          0         
239              24.6       162.2      129.4      0          0         
240              18.6       168.2      135.4      0          0         
241              -0.7       187.5      154.7      0          0         
242              50.8       136.0      103.2      0          0         
243              2.4        184.4      151.6      0          0         
244              23.8       163.0      130.2      0          0         
245              -1.0       187.8      155.0      0          0         
246              49.2       137.6      104.8      0          0         
247              44.7       142.1      109.3      0          0         
248              -1.5       188.3      155.5      0          0         
249              23.6       163.2      130.4      0          0         
250              -18.2      205.0      172.2      0          0         
251              32.8       154.0      127.2      0          0         
252              -10.5      197.3      170.5      0          0         
253              48.5       138.3      111.5      0          0         
254              0.8        186.0      159.2      0          0         
255              28.1       158.7      131.9      0          0         
256              45.7       141.1      114.3      0          0         
257              24.3       162.5      135.7      0          0         
258              30.5       156.3      129.5      0          0         
259              -3.8       190.6      163.8      0          0         
260              29.0       157.8      131.0      0          0         
261              37.9       148.9      122.1      0          0         
262              1.9        184.9      158.1      0          0         
263              25.6       161.2      134.4      0          0         
264              -35.8      222.6      195.8      0          0         
265              40.8       146.0      119.2      0          0         
266              1.2        185.6      158.8      0          0         
267              26.6       160.2      133.4      0          0         
268              43.1       143.7      116.9      0          0         
269              -5.4       192.2      165.4      0          0         
270              14.7       172.1      145.3      0          0         
271              -7.1       193.9      167.1      0          0         
272              34.0       152.8      126.0      0          0         
273              40.1       146.7      119.9      0          0         
274              33.3       153.5      126.7      0          0         
275              -4.4       191.2      164.4      0          0         
276              38.5       148.3      121.5      0          0         
277              -17.0      203.8      177.0      0          0         
278              31.5       155.3      128.5      0          0         
279              44.0       142.8      116.0      0          0         
280              14.5       172.3      145.5      0          0         
281              11.8       175.0      148.2      0          0         
282              -22.2      209.0      182.2      0          0         
283              37.6       149.2      122.4      0          0         
284              -9.2       196.0      169.2      0          0         
285              14.7       172.1      145.3      0          0         
286              1.8        185.0      158.2      0          0         

[OUTFALLS]
;;Name           Elevation  Type       Stage Data       Gated    Route To        
;;-------------- ---------- ---------- ---------------- -------- ----------------
288              19.8       FREE                        NO                       
289              19.8       TIMESERIES 1                NO                       

[STORAGE]
;;Name           Elev.    MaxDepth   InitDepth  Shape      Curve Name/Params            N/A      Fevap    Psi      Ksat     IMD     
;;-------------- -------- ---------- ----------- ---------- ---------------------------- -------- --------          -------- --------
287              19.8     167.0      153.2      TABULAR    storage                      0        0       

[CONDUITS]
;;Name           From Node        To Node          Length     Roughness  InOffset   OutOffset  InitFlow   MaxFlow   
;;-------------- ---------------- ---------------- ---------- ---------- ---------- ---------- ---------- ----------
1                1                2                1950       0.04       0          0          0          0         
2                2                3                1360       0.04       0          0          0          0         
3                3                4                1190       0.04       0          0          0          0         
4                4                5                1980       0.04       0          0          0          0         
5                5                6                1190       0.04       0          0          0          0         
6                6                7                2150       0.04       0          0          0          0         
7                7                8                2420       0.04       0          0          0          0         
8                8                9                1990       0.04       0          0          0          0         
9                9                10               2390       0.04       0          0          0          0         
10               10               11               1870       0.04       0          0          0          0         
11               11               12               2600       0.04       0          0          0          0         
12               12               13               2070       0.04       0          0          0          0         
13               13               14               2270       0.04       0          0          0          0         
14               14               15               2040       0.04       0          0          0          0         
15               15               16               1390       0.04       0          0          0          0         
16               16               17               4070       0.04       0          0          0          0         
17               17               18               2450       0.04       0          0          0          0         
18               18               19               3090       0.04       0          0          0          0         
19               19               20               2120       0.04       0          0          0          0         
20               20               21               1490       0.04       0          0          0          0         
21               21               22               1740       0.04       0          0          0          0         
22               22               23               1300       0.04       0          0          0          0         
23               23               24               1880       0.04       0          0          0          0         
24               24               25               1980       0.04       0          0          0          0         
25               25               26               1160       0.04       0          0          0          0         
26               26               27               1430       0.04       0          0          0          0         
27               27               28               1800       0.04       0          0          0          0         
28               28               29               3400       0.04       0          0          0          0         
29               29               30               1280       0.04       0          0          0          0         
30               30               31               1590       0.04       0          0          0          0         
31               31               32               1370       0.04       0          0          0          0         
32               32               33               2020       0.04       0          0          0          0         
33               33               34               1180       0.04       0          0          0          0         
34               34               35               1570       0.04       0          0          0          0         
35               35               36               1250       0.04       0          0          0          0         
36               36               37               2410       0.04       0          0          0          0         
37               37               38               2710       0.04       0          0          0          0         
38               38               39               980        0.04       0          0          0          0         
39               39               40               1180       0.04       0          0          0          0         
40               40               41               1820       0.04       0          0          0          0         
41               41               42               2490       0.04       0          0          0          0         
42               42               43               3030       0.04       0          0          0          0         
43               43               44               1870       0.04       0          0          0          0         
44               44               45               980        0.04       0          0          0          0         
45               45               46               1670       0.04       0          0          0          0         
46               46               47               1480       0.04       0          0          0          0         
47               47               48               2900       0.04       0          0          0          0         
48               48               49               1780       0.04       0          0          0          0         
49               49               50               1910       0.04       0          0          0          0         
50               50               51               2260       0.04       0          0          0          0         
51               51               52               1930       0.04       0          0          0          0         
52               52               53               3160       0.04       0          0          0          0         
53               53               54               2250       0.04       0          0          0          0         
54               54               55               2250       0.04       0          0          0          0         
55               55               56               2009       0.04       0          0          0          0         
56               56               57               1200       0.04       0          0          0          0         
57               57               58               1330       0.04       0          0          0          0         
58               58               59               2090       0.04       0          0          0          0         